
     RDKit          3D

  8  8  0  0  0  0  0  0  0  0999 V2000
   -0.6491   -0.7510    0.0115 C   0  0  0  0  0  0  0  0  0  0  0  0
   -0.9877    0.5960    0.0242 C   0  0  0  0  0  0  0  0  0  0  0  0
    0.4300    1.4759    0.2242 S   0  0  0  0  0  0  0  0  0  0  0  0
    1.4104    0.1128    0.2860 C   0  0  0  0  0  0  0  0  0  0  0  0
    0.6774   -1.0142    0.1565 N   0  0  0  0  0  0  0  0  0  0  0  0
   -1.3803   -1.5394   -0.1046 H   0  0  0  0  0  0  0  0  0  0  0  0
   -1.9850    1.0022   -0.0767 H   0  0  0  0  0  0  0  0  0  0  0  0
    2.4844    0.1177    0.4118 H   0  0  0  0  0  0  0  0  0  0  0  0
  1  2  2  0
  2  3  1  0
  3  4  1  0
  4  5  2  0
  5  1  1  0
  1  6  1  0
  2  7  1  0
  4  8  1  0
M  END
